@<TRIPOS>MOLECULE
MOL009513
   40    42     1     1     0
SMALL
GASTEIGER


@<TRIPOS>ATOM
      1 C           3.631375    0.483741    0.028073 C.ar      1 <1>         0.116878 
      2 C           4.920169   -0.217481    0.258874 C.ar      1 <1>         0.103185 
      3 C           4.927285   -1.567684    0.607250 C.ar      1 <1>        -0.028685 
      4 C           3.653907   -2.312556    0.741211 C.ar      1 <1>        -0.047637 
      5 C           2.418281   -1.656509    0.512537 C.ar      1 <1>         0.035731 
      6 C           1.111571   -2.403649    0.642531 C.2       1 <1>         0.194669 
      7 O           1.116296   -3.583877    0.952503 O.2       1 <1>        -0.286609 
      8 C          -0.201482   -1.697769    0.389821 C.ar      1 <1>         0.035587 
      9 C          -1.471270   -2.451504    0.532064 C.ar      1 <1>        -0.049741 
     10 C          -2.698980   -1.818941    0.311128 C.ar      1 <1>        -0.053214 
     11 C          -2.742645   -0.388995   -0.077456 C.ar      1 <1>         0.008749 
     12 C          -1.537599    0.329317   -0.232721 C.ar      1 <1>         0.092650 
     13 C          -0.228235   -0.326485    0.022854 C.ar      1 <1>         0.063399 
     14 C           1.064712    0.452610   -0.099208 C.2       1 <1>         0.199548 
     15 O           1.033647    1.635792   -0.392283 O.2       1 <1>        -0.286433 
     16 C           2.397593   -0.221995    0.143271 C.ar      1 <1>         0.065587 
     17 C          -4.085859    0.311551   -0.312970 C.3       1 <1>         0.074746 
     18 O          -5.150613   -0.409168    0.340788 O.3       1 <1>        -0.378313 
     19 C          -6.447304    0.188855    0.147896 C.3       1 <1>         0.036870 
     20 O          -1.587669    1.665504   -0.628389 O.3       1 <1>        -0.346836 
     21 C          -1.457183    1.866553   -2.046099 C.3       1 <1>         0.043066 
     22 O           3.646625    1.838499   -0.303687 O.3       1 <1>        -0.344615 
     23 C           3.581935    2.718605    0.831428 C.3       1 <1>         0.043163 
     24 O           6.131826    0.462559    0.128439 O.3       1 <1>        -0.357254 
     25 H           5.872459   -2.071645    0.777722 H         1 <1>         0.064423 
     26 H           3.675734   -3.362666    1.014121 H         1 <1>         0.062561 
     27 H          -1.450753   -3.500165    0.811271 H         1 <1>         0.062491 
     28 H          -3.620557   -2.381580    0.422503 H         1 <1>         0.062201 
     29 H          -4.027015    1.337670    0.084294 H         1 <1>         0.061050 
     30 H          -4.258663    0.349962   -1.399283 H         1 <1>         0.061050 
     31 H          -7.187008   -0.434603    0.671905 H         1 <1>         0.052363 
     32 H          -6.486107    1.204714    0.570978 H         1 <1>         0.052363 
     33 H          -6.717607    0.225912   -0.918962 H         1 <1>         0.052363 
     34 H          -1.484731    2.948726   -2.239853 H         1 <1>         0.052870 
     35 H          -2.286155    1.390793   -2.590842 H         1 <1>         0.052870 
     36 H          -0.505243    1.466092   -2.427211 H         1 <1>         0.052870 
     37 H           3.584448    3.754346    0.461420 H         1 <1>         0.052871 
     38 H           2.661097    2.556551    1.413005 H         1 <1>         0.052871 
     39 H           4.452810    2.576330    1.490043 H         1 <1>         0.052871 
     40 H           6.005624    1.326897   -0.249896 H         1 <1>         0.217422 
@<TRIPOS>BOND
     1    1    2 1    
     2    1   16 2    
     3    1   22 1    
     4    2    3 2    
     5    2   24 1    
     6    3    4 1    
     7    3   25 1    
     8    4    5 2    
     9    4   26 1    
    10    5    6 1    
    11    5   16 1    
    12    6    7 2    
    13    6    8 1    
    14    8    9 1    
    15    8   13 2    
    16    9   10 2    
    17    9   27 1    
    18   10   11 1    
    19   10   28 1    
    20   11   12 2    
    21   11   17 1    
    22   12   13 1    
    23   12   20 1    
    24   13   14 1    
    25   14   15 2    
    26   14   16 1    
    27   17   18 1    
    28   17   29 1    
    29   17   30 1    
    30   18   19 1    
    31   19   31 1    
    32   19   32 1    
    33   19   33 1    
    34   20   21 1    
    35   21   34 1    
    36   21   35 1    
    37   21   36 1    
    38   22   23 1    
    39   23   37 1    
    40   23   38 1    
    41   23   39 1    
    42   24   40 1    
@<TRIPOS>SUBSTRUCTURE
     1 ****        1 TEMP              0 ****  ****    0 ROOT 
@<TRIPOS>NORMAL
@<TRIPOS>FF_PBC
FORCE_FIELD_SETUP_FEATURE Force Field Setup information
v1.0  0 0.000000 0.000000 0.000000 0.000000 0.000000 0.000000 NONE 0 0 0 0 1 0 0 0 0 0 0 0 0
